$$------------------------------------------------------------------------------$
$$
$$ Nastran Input Deck Generated by MATLAB Version  : 2017.0.2
$$ Generated using HyperMesh-Nastran Template Version : 2017.2
$$
$$   Template:  NastranMSC general
$$
$$------------------------------------------------------------------------------$
$$------------------------------------------------------------------------------$
$$                      NASTRAN STATEMENTS                                      $
$$------------------------------------------------------------------------------$
NASTRAN SYSTEM(444)=9
$$------------------------------------------------------------------------------$
$$                      File Management                                         $
$$------------------------------------------------------------------------------$
$$------------------------------------------------------------------------------$
$$                      Executive Control                                       $
$$------------------------------------------------------------------------------$
SOL 101
CEND
$$------------------------------------------------------------------------------$
$$                      CASE Control                                            $
$$------------------------------------------------------------------------------$
$$------------------------------------------------------------------------------$
$$                      Subcase Information                                     $
$$------------------------------------------------------------------------------$
$
SUBCASE 1
SPC = 2
LOAD = 3
$
$
SUBCASE 2
SPC = 2
LOAD = 4
$
BEGIN BULK
$
$$
$$  CQUAD4 Data
$$
CQUAD4         1       1       2      53      52       1
CQUAD4         2       1       3      54      53       2
CQUAD4         3       1       4      55      54       3
CQUAD4         4       1       5      56      55       4
CQUAD4         5       1       6      57      56       5
CQUAD4         6       1       7      58      57       6
CQUAD4         7       1       8      59      58       7
CQUAD4         8       1       9      60      59       8
CQUAD4         9       1      10      61      60       9
CQUAD4        10       1      11      62      61      10
CQUAD4        11       1      12      63      62      11
CQUAD4        12       1      13      64      63      12
CQUAD4        13       1      14      65      64      13
CQUAD4        14       1      15      66      65      14
CQUAD4        15       1      16      67      66      15
CQUAD4        16       1      17      68      67      16
CQUAD4        17       1      18      69      68      17
CQUAD4        18       1      19      70      69      18
CQUAD4        19       1      20      71      70      19
CQUAD4        20       1      21      72      71      20
$ ... 1580 like lines cut
$$
$$  GRID Data
$$
GRID           1         0.      50.     0.
GRID           2         0.      49.     0.
GRID           3         0.      48.     0.
GRID           4         0.      47.     0.
GRID           5         0.      46.     0.
GRID           6         0.      45.     0.
GRID           7         0.      44.     0.
GRID           8         0.      43.     0.
GRID           9         0.      42.     0.
GRID          10         0.      41.     0.
GRID          11         0.      40.     0.
GRID          12         0.      39.     0.
GRID          13         0.      38.     0.
GRID          14         0.      37.     0.
GRID          15         0.      36.     0.
GRID          16         0.      35.     0.
GRID          17         0.      34.     0.
GRID          18         0.      33.     0.
GRID          19         0.      32.     0.
GRID          20         0.      31.     0.
$ ... 1681 like lines cut
$$
$$  MAT1 Data
$$
MAT1           1 114000. 44000.  .31     5.-6
$$
$$  PSHELL Data
$$
PSHELL         1       1       1
$$
$$  SPC Data
$$
SPC            2       1  123456 0.
SPC            2      52  123456 0.
SPC            2     103  123456 0.
SPC            2     154  123456 0.
SPC            2     205  123456 0.
SPC            2     256  123456 0.
SPC            2     307  123456 0.
SPC            2     358  123456 0.
SPC            2     409  123456 0.
SPC            2     460  123456 0.
SPC            2     511  123456 0.
SPC            2     562  123456 0.
SPC            2     613  123456 0.
SPC            2     664  123456 0.
SPC            2     715  123456 0.
SPC            2     766  123456 0.
SPC            2     817  123456 0.
SPC            2     868  123456 0.
SPC            2     919  123456 0.
SPC            2     970  123456 0.
SPC            2    1021  123456 0.
$$
$$  FORCE Data
$$
FORCE          3    1681       0 1.      0.      100.    0.
FORCE          4    1681       0 1.      0.      -100.   0.
$
ENDDATA
$
