$$
$$ Optistruct Input Deck Generated by MATLAB Version  : 2017.2.0.16
$$ Generated using HyperMesh-Optistruct Template Version : 2017.2
$$
$$   Template:  optistruct
$$
$$ optistruct
$
THICKNESS = ALL
$$------------------------------------------------------------------------------$
$$                      Case Control Cards                                      $
$$------------------------------------------------------------------------------$
$$
$$  OBJECTIVES Data
$$
$

$$$$$$ SORTED ECHO OF THE INPUT DECK $$$$$$


$
$ subcase cards
$
  SUBCASE =         1
  LABEL   = LC1
  SPC     =         1
  LOAD    =         5
$
$
  SUBCASE =         2
  LABEL   = LC2
  SPC     =         1
  LOAD    =         6
$
$
  SUBCASE =         3
  LABEL   = LC3
  SPC     =         1
  LOAD    =         7
$
BEGIN BULK
$
$$
$$  CBAR Data
$$
CBAR    40      12      2       3       0.0     0.0     -1.0    GGG     +
+                       0.0     0.0     -17.61290.0     0.0     -17.6129
CBAR    41      12      3       4       0.0     0.0     -1.0    GGG     +
+                       0.0     0.0     -17.61290.0     0.0     -17.6129
CBAR    42      12      4       5       0.0     0.0     -1.0    GGG     +
+                       0.0     0.0     -17.61290.0     0.0     -17.6129
CBAR    43      13      9       10      0.0     0.0     -1.0    GGG     +
+                       0.0     0.0     -17.61290.0     0.0     -17.6129
CBAR    44      13      10      11      0.0     0.0     -1.0    GGG     +
+                       0.0     0.0     -17.61290.0     0.0     -17.6129
CBAR    45      13      11      12      0.0     0.0     -1.0    GGG     +
+                       0.0     0.0     -17.61290.0     0.0     -17.6129
CBAR    46      14      13      14      0.0     0.0     -1.0    GGG     +
+                       0.0     0.0     -17.61290.0     0.0     -17.6129
CBAR    47      14      14      15      0.0     0.0     -1.0    GGG     +
+                       0.0     0.0     -17.61290.0     0.0     -17.6129
CBAR    48      14      15      16      0.0     0.0     -1.0    GGG     +
+                       0.0     0.0     -17.61290.0     0.0     -17.6129
CBAR    49      15      17      18      0.0     0.0     -1.0    GGG     +
+                       0.0     0.0     -17.61290.0     0.0     -17.6129
CBAR    50      15      18      19      0.0     0.0     -1.0    GGG     +
+                       0.0     0.0     -17.61290.0     0.0     -17.6129
CBAR    51      15      19      20      0.0     0.0     -1.0    GGG     +
+                       0.0     0.0     -17.61290.0     0.0     -17.6129
CBAR    52      16      21      22      0.0     0.0     -1.0    GGG     +
+                       0.0     0.0     -17.61290.0     0.0     -17.6129
CBAR    53      16      22      23      0.0     0.0     -1.0    GGG     +
+                       0.0     0.0     -17.61290.0     0.0     -17.6129
CBAR    54      16      23      24      0.0     0.0     -1.0    GGG     +
+                       0.0     0.0     -17.61290.0     0.0     -17.6129
CBAR    55      17      25      26      0.0     0.0     -1.0    GGG     +
+                       0.0     0.0     -17.61290.0     0.0     -17.6129
CBAR    56      17      26      27      0.0     0.0     -1.0    GGG     +
+                       0.0     0.0     -17.61290.0     0.0     -17.6129
CBAR    57      17      27      28      0.0     0.0     -1.0    GGG     +
+                       0.0     0.0     -17.61290.0     0.0     -17.6129
CBAR    58      18      29      30      0.0     0.0     -1.0    GGG     +
+                       0.0     0.0     -17.61290.0     0.0     -17.6129
CBAR    59      18      30      31      0.0     0.0     -1.0    GGG     +
+                       0.0     0.0     -17.61290.0     0.0     -17.6129
$ ... 14 like lines cut
$$
$$  CQUAD4 Data
$$
CQUAD4  1       1       2       3       8       1               2.4
CQUAD4  2       1       3       4       7       8               2.4
CQUAD4  3       1       4       5       6       7               2.4
CQUAD4  4       2       9       10      3       2               2.45
CQUAD4  5       2       10      11      4       3               2.45
CQUAD4  6       2       11      12      5       4               2.45
CQUAD4  7       3       13      14      10      9               2.45
CQUAD4  8       3       14      15      11      10              2.45
CQUAD4  9       3       15      16      12      11              2.45
CQUAD4  10      4       17      18      14      13              2.45
CQUAD4  11      4       18      19      15      14              2.45
CQUAD4  12      4       19      20      16      15              2.45
CQUAD4  13      5       21      22      18      17              3.15
CQUAD4  14      5       22      23      19      18              3.15
CQUAD4  15      5       23      24      20      19              3.15
CQUAD4  16      6       25      26      22      21              3.15
CQUAD4  17      6       26      27      23      22              3.15
CQUAD4  18      6       27      28      24      23              3.15
CQUAD4  19      7       29      30      26      25              2.45
CQUAD4  20      7       30      31      27      26              2.45
$ ... 10 like lines cut
$$
$$  CROD Data
$$
CROD    31      11      41      42
CROD    32      11      42      43
CROD    33      11      43      44
CROD    34      11      1       8
CROD    35      11      8       7
CROD    36      11      7       6
$$
$$  FORCE Data
$$
FORCE   2       13      0       1.0     60000.0 0.0     0.0
FORCE   2       9       0       1.0     60000.0 0.0     0.0
FORCE   2       2       0       1.0     60000.0 0.0     0.0
FORCE   2       1       0       1.0     30000.0 0.0     0.0
FORCE   2       17      0       1.0     60000.0 0.0     0.0
FORCE   2       21      0       1.0     60000.0 0.0     0.0
FORCE   2       25      0       1.0     60000.0 0.0     0.0
FORCE   2       29      0       1.0     60000.0 0.0     0.0
FORCE   2       33      0       1.0     60000.0 0.0     0.0
FORCE   2       37      0       1.0     60000.0 0.0     0.0
FORCE   2       41      0       1.0     30000.0 0.0     0.0
FORCE   2       5       0       1.0     -60000.00.0     0.0
FORCE   2       6       0       1.0     -30000.00.0     0.0
FORCE   2       12      0       1.0     -60000.00.0     0.0
FORCE   2       16      0       1.0     -60000.00.0     0.0
FORCE   2       20      0       1.0     -60000.00.0     0.0
FORCE   2       24      0       1.0     -60000.00.0     0.0
FORCE   2       28      0       1.0     -60000.00.0     0.0
FORCE   2       32      0       1.0     -60000.00.0     0.0
FORCE   2       36      0       1.0     -60000.00.0     0.0
$ ... 40 like lines cut
$$
$$  GRID Data
$$
GRID    1               0.0     2000.0  0.0
GRID    2               0.0     1800.0  0.0
GRID    3               250.0   1800.0  0.0
GRID    4               500.0   1800.0  0.0
GRID    5               750.0   1800.0  0.0
GRID    6               750.0   2000.0  0.0
GRID    7               500.0   2000.0  0.0
GRID    8               250.0   2000.0  0.0
GRID    9               0.0     1600.0  0.0
GRID    10              250.0   1600.0  0.0
GRID    11              500.0   1600.0  0.0
GRID    12              750.0   1600.0  0.0
GRID    13              0.0     1400.0  0.0
GRID    14              250.0   1400.0  0.0
GRID    15              500.0   1400.0  0.0
GRID    16              750.0   1400.0  0.0
GRID    17              0.0     1200.0  0.0
GRID    18              250.0   1200.0  0.0
GRID    19              500.0   1200.0  0.0
GRID    20              750.0   1200.0  0.0
$ ... 25 like lines cut
$$
$$  LOADADD Data
$$
LOADADD 5       1.49    1.0     2       -1.0    3       0.5     4
LOADADD 7       0.99    0.5     2       -0.5    3       3.0     4
LOADADD 6       1.49    1.0     2       1.0     3       0.5     4
$$
$$  MAT1 Data
$$
MAT1    1       71575.11        0.34    2.7-9
$$
$$  PBARL Data
$$
PBARL   12      1               HAT                                     +
+       40      3       20      15
PBARL   13      1               HAT                                     +
+       40      3       20      15
PBARL   14      1               HAT                                     +
+       40      3       20      15
PBARL   15      1               HAT                                     +
+       40      3       20      15
PBARL   16      1               HAT                                     +
+       40      3       20      15
PBARL   17      1               HAT                                     +
+       40      3       20      15
PBARL   18      1               HAT                                     +
+       40      3       20      15
PBARL   19      1               HAT                                     +
+       40      3       20      15
PBARL   20      1               HAT                                     +
+       40      3       20      15
$$
$$  PROD Data
$$
PROD    11      1       284.0   0.0
$$
$$  PSHELL Data
$$
PSHELL  1       1       4.8     1               1               0.0
PSHELL  2       1       4.9     1               1               0.0
PSHELL  3       1       4.9     1               1               0.0
PSHELL  4       1       4.9     1               1               0.0
PSHELL  5       1       6.3     1               1               0.0
PSHELL  6       1       6.3     1               1               0.0
PSHELL  7       1       4.9     1               1               0.0
PSHELL  8       1       4.9     1               1               0.0
PSHELL  9       1       4.9     1               1               0.0
PSHELL  10      1       4.8     1               1               0.0
$$
$$  RBE3 Data
$$
RBE3    70              51      123456  1.0     123     18      19
+       22      23      26      27
$$
$$  SPC Data
$$
SPC     1       41      3       0.0
SPC     1       1       3       0.0
SPC     1       6       3       0.0
SPC     1       7       3       0.0
SPC     1       8       3       0.0
SPC     1       42      3       0.0
SPC     1       43      3       0.0
SPC     1       44      3       0.0
SPC     1       2       3       0.0
SPC     1       9       3       0.0
SPC     1       13      3       0.0
SPC     1       17      3       0.0
SPC     1       21      3       0.0
SPC     1       25      3       0.0
SPC     1       29      3       0.0
SPC     1       33      3       0.0
SPC     1       37      3       0.0
SPC     1       5       3       0.0
SPC     1       12      3       0.0
SPC     1       16      3       0.0
$ ... 7 like lines cut
$
ENDDATA
$
